New Loadshape.LS_Bus2002 npts=8760 interval=1 mult=(file=/home/matheus/Documentos/BtM-PV-estimating/loadshapes/FeederB/LS_Bus2002.txt)
New Loadshape.LS_Bus2003 npts=8760 interval=1 mult=(file=/home/matheus/Documentos/BtM-PV-estimating/loadshapes/FeederB/LS_Bus2003.txt)
New Loadshape.LS_Bus2005 npts=8760 interval=1 mult=(file=/home/matheus/Documentos/BtM-PV-estimating/loadshapes/FeederB/LS_Bus2005.txt)
New Loadshape.LS_Bus2008 npts=8760 interval=1 mult=(file=/home/matheus/Documentos/BtM-PV-estimating/loadshapes/FeederB/LS_Bus2008.txt)
New Loadshape.LS_Bus2009 npts=8760 interval=1 mult=(file=/home/matheus/Documentos/BtM-PV-estimating/loadshapes/FeederB/LS_Bus2009.txt)
New Loadshape.LS_Bus2010 npts=8760 interval=1 mult=(file=/home/matheus/Documentos/BtM-PV-estimating/loadshapes/FeederB/LS_Bus2010.txt)
New Loadshape.LS_Bus2011 npts=8760 interval=1 mult=(file=/home/matheus/Documentos/BtM-PV-estimating/loadshapes/FeederB/LS_Bus2011.txt)
New Loadshape.LS_Bus2014 npts=8760 interval=1 mult=(file=/home/matheus/Documentos/BtM-PV-estimating/loadshapes/FeederB/LS_Bus2014.txt)
New Loadshape.LS_Bus2015 npts=8760 interval=1 mult=(file=/home/matheus/Documentos/BtM-PV-estimating/loadshapes/FeederB/LS_Bus2015.txt)
New Loadshape.LS_Bus2016 npts=8760 interval=1 mult=(file=/home/matheus/Documentos/BtM-PV-estimating/loadshapes/FeederB/LS_Bus2016.txt)
New Loadshape.LS_Bus2017 npts=8760 interval=1 mult=(file=/home/matheus/Documentos/BtM-PV-estimating/loadshapes/FeederB/LS_Bus2017.txt)
New Loadshape.LS_Bus2018 npts=8760 interval=1 mult=(file=/home/matheus/Documentos/BtM-PV-estimating/loadshapes/FeederB/LS_Bus2018.txt)
New Loadshape.LS_Bus2020 npts=8760 interval=1 mult=(file=/home/matheus/Documentos/BtM-PV-estimating/loadshapes/FeederB/LS_Bus2020.txt)
New Loadshape.LS_Bus2022 npts=8760 interval=1 mult=(file=/home/matheus/Documentos/BtM-PV-estimating/loadshapes/FeederB/LS_Bus2022.txt)
New Loadshape.LS_Bus2023 npts=8760 interval=1 mult=(file=/home/matheus/Documentos/BtM-PV-estimating/loadshapes/FeederB/LS_Bus2023.txt)
New Loadshape.LS_Bus2024 npts=8760 interval=1 mult=(file=/home/matheus/Documentos/BtM-PV-estimating/loadshapes/FeederB/LS_Bus2024.txt)
New Loadshape.LS_Bus2025 npts=8760 interval=1 mult=(file=/home/matheus/Documentos/BtM-PV-estimating/loadshapes/FeederB/LS_Bus2025.txt)
New Loadshape.LS_Bus2028 npts=8760 interval=1 mult=(file=/home/matheus/Documentos/BtM-PV-estimating/loadshapes/FeederB/LS_Bus2028.txt)
New Loadshape.LS_Bus2029 npts=8760 interval=1 mult=(file=/home/matheus/Documentos/BtM-PV-estimating/loadshapes/FeederB/LS_Bus2029.txt)
New Loadshape.LS_Bus2030 npts=8760 interval=1 mult=(file=/home/matheus/Documentos/BtM-PV-estimating/loadshapes/FeederB/LS_Bus2030.txt)
New Loadshape.LS_Bus2031 npts=8760 interval=1 mult=(file=/home/matheus/Documentos/BtM-PV-estimating/loadshapes/FeederB/LS_Bus2031.txt)
New Loadshape.LS_Bus2032 npts=8760 interval=1 mult=(file=/home/matheus/Documentos/BtM-PV-estimating/loadshapes/FeederB/LS_Bus2032.txt)
New Loadshape.LS_Bus2034 npts=8760 interval=1 mult=(file=/home/matheus/Documentos/BtM-PV-estimating/loadshapes/FeederB/LS_Bus2034.txt)
New Loadshape.LS_Bus2035 npts=8760 interval=1 mult=(file=/home/matheus/Documentos/BtM-PV-estimating/loadshapes/FeederB/LS_Bus2035.txt)
New Loadshape.LS_Bus2037 npts=8760 interval=1 mult=(file=/home/matheus/Documentos/BtM-PV-estimating/loadshapes/FeederB/LS_Bus2037.txt)
New Loadshape.LS_Bus2040 npts=8760 interval=1 mult=(file=/home/matheus/Documentos/BtM-PV-estimating/loadshapes/FeederB/LS_Bus2040.txt)
New Loadshape.LS_Bus2041 npts=8760 interval=1 mult=(file=/home/matheus/Documentos/BtM-PV-estimating/loadshapes/FeederB/LS_Bus2041.txt)
New Loadshape.LS_Bus2042 npts=8760 interval=1 mult=(file=/home/matheus/Documentos/BtM-PV-estimating/loadshapes/FeederB/LS_Bus2042.txt)
New Loadshape.LS_Bus2043 npts=8760 interval=1 mult=(file=/home/matheus/Documentos/BtM-PV-estimating/loadshapes/FeederB/LS_Bus2043.txt)
New Loadshape.LS_Bus2045 npts=8760 interval=1 mult=(file=/home/matheus/Documentos/BtM-PV-estimating/loadshapes/FeederB/LS_Bus2045.txt)
New Loadshape.LS_Bus2046 npts=8760 interval=1 mult=(file=/home/matheus/Documentos/BtM-PV-estimating/loadshapes/FeederB/LS_Bus2046.txt)
New Loadshape.LS_Bus2047 npts=8760 interval=1 mult=(file=/home/matheus/Documentos/BtM-PV-estimating/loadshapes/FeederB/LS_Bus2047.txt)
New Loadshape.LS_Bus2048 npts=8760 interval=1 mult=(file=/home/matheus/Documentos/BtM-PV-estimating/loadshapes/FeederB/LS_Bus2048.txt)
New Loadshape.LS_Bus2049 npts=8760 interval=1 mult=(file=/home/matheus/Documentos/BtM-PV-estimating/loadshapes/FeederB/LS_Bus2049.txt)
New Loadshape.LS_Bus2050 npts=8760 interval=1 mult=(file=/home/matheus/Documentos/BtM-PV-estimating/loadshapes/FeederB/LS_Bus2050.txt)
New Loadshape.LS_Bus2051 npts=8760 interval=1 mult=(file=/home/matheus/Documentos/BtM-PV-estimating/loadshapes/FeederB/LS_Bus2051.txt)
New Loadshape.LS_Bus2052 npts=8760 interval=1 mult=(file=/home/matheus/Documentos/BtM-PV-estimating/loadshapes/FeederB/LS_Bus2052.txt)
New Loadshape.LS_Bus2053 npts=8760 interval=1 mult=(file=/home/matheus/Documentos/BtM-PV-estimating/loadshapes/FeederB/LS_Bus2053.txt)
New Loadshape.LS_Bus2054 npts=8760 interval=1 mult=(file=/home/matheus/Documentos/BtM-PV-estimating/loadshapes/FeederB/LS_Bus2054.txt)
New Loadshape.LS_Bus2055 npts=8760 interval=1 mult=(file=/home/matheus/Documentos/BtM-PV-estimating/loadshapes/FeederB/LS_Bus2055.txt)
New Loadshape.LS_Bus2056 npts=8760 interval=1 mult=(file=/home/matheus/Documentos/BtM-PV-estimating/loadshapes/FeederB/LS_Bus2056.txt)
New Loadshape.LS_Bus2058 npts=8760 interval=1 mult=(file=/home/matheus/Documentos/BtM-PV-estimating/loadshapes/FeederB/LS_Bus2058.txt)
New Loadshape.LS_Bus2059 npts=8760 interval=1 mult=(file=/home/matheus/Documentos/BtM-PV-estimating/loadshapes/FeederB/LS_Bus2059.txt)
New Loadshape.LS_Bus2060 npts=8760 interval=1 mult=(file=/home/matheus/Documentos/BtM-PV-estimating/loadshapes/FeederB/LS_Bus2060.txt)
