New Loadshape.Loadshape_P_Bus1003 npts=8760 interval=1 mult=(file=/home/matheus/Documentos/BtM-PV-estimating/loadshapes/FeederA/Loadshape_P_Bus1003.txt)
New Loadshape.Loadshape_Q_Bus1003 npts=8760 interval=1 mult=(file=/home/matheus/Documentos/BtM-PV-estimating/loadshapes/FeederA/Loadshape_Q_Bus1003.txt)
New Loadshape.Loadshape_P_Bus1004 npts=8760 interval=1 mult=(file=/home/matheus/Documentos/BtM-PV-estimating/loadshapes/FeederA/Loadshape_P_Bus1004.txt)
New Loadshape.Loadshape_Q_Bus1004 npts=8760 interval=1 mult=(file=/home/matheus/Documentos/BtM-PV-estimating/loadshapes/FeederA/Loadshape_Q_Bus1004.txt)
New Loadshape.Loadshape_P_Bus1005 npts=8760 interval=1 mult=(file=/home/matheus/Documentos/BtM-PV-estimating/loadshapes/FeederA/Loadshape_P_Bus1005.txt)
New Loadshape.Loadshape_Q_Bus1005 npts=8760 interval=1 mult=(file=/home/matheus/Documentos/BtM-PV-estimating/loadshapes/FeederA/Loadshape_Q_Bus1005.txt)
New Loadshape.Loadshape_P_Bus1006 npts=8760 interval=1 mult=(file=/home/matheus/Documentos/BtM-PV-estimating/loadshapes/FeederA/Loadshape_P_Bus1006.txt)
New Loadshape.Loadshape_Q_Bus1006 npts=8760 interval=1 mult=(file=/home/matheus/Documentos/BtM-PV-estimating/loadshapes/FeederA/Loadshape_Q_Bus1006.txt)
New Loadshape.Loadshape_P_Bus1007 npts=8760 interval=1 mult=(file=/home/matheus/Documentos/BtM-PV-estimating/loadshapes/FeederA/Loadshape_P_Bus1007.txt)
New Loadshape.Loadshape_Q_Bus1007 npts=8760 interval=1 mult=(file=/home/matheus/Documentos/BtM-PV-estimating/loadshapes/FeederA/Loadshape_Q_Bus1007.txt)
New Loadshape.Loadshape_P_Bus1008 npts=8760 interval=1 mult=(file=/home/matheus/Documentos/BtM-PV-estimating/loadshapes/FeederA/Loadshape_P_Bus1008.txt)
New Loadshape.Loadshape_Q_Bus1008 npts=8760 interval=1 mult=(file=/home/matheus/Documentos/BtM-PV-estimating/loadshapes/FeederA/Loadshape_Q_Bus1008.txt)
New Loadshape.Loadshape_P_Bus1009 npts=8760 interval=1 mult=(file=/home/matheus/Documentos/BtM-PV-estimating/loadshapes/FeederA/Loadshape_P_Bus1009.txt)
New Loadshape.Loadshape_Q_Bus1009 npts=8760 interval=1 mult=(file=/home/matheus/Documentos/BtM-PV-estimating/loadshapes/FeederA/Loadshape_Q_Bus1009.txt)
New Loadshape.Loadshape_P_Bus1010 npts=8760 interval=1 mult=(file=/home/matheus/Documentos/BtM-PV-estimating/loadshapes/FeederA/Loadshape_P_Bus1010.txt)
New Loadshape.Loadshape_Q_Bus1010 npts=8760 interval=1 mult=(file=/home/matheus/Documentos/BtM-PV-estimating/loadshapes/FeederA/Loadshape_Q_Bus1010.txt)
New Loadshape.Loadshape_P_Bus1011 npts=8760 interval=1 mult=(file=/home/matheus/Documentos/BtM-PV-estimating/loadshapes/FeederA/Loadshape_P_Bus1011.txt)
New Loadshape.Loadshape_Q_Bus1011 npts=8760 interval=1 mult=(file=/home/matheus/Documentos/BtM-PV-estimating/loadshapes/FeederA/Loadshape_Q_Bus1011.txt)
New Loadshape.Loadshape_P_Bus1012 npts=8760 interval=1 mult=(file=/home/matheus/Documentos/BtM-PV-estimating/loadshapes/FeederA/Loadshape_P_Bus1012.txt)
New Loadshape.Loadshape_Q_Bus1012 npts=8760 interval=1 mult=(file=/home/matheus/Documentos/BtM-PV-estimating/loadshapes/FeederA/Loadshape_Q_Bus1012.txt)
New Loadshape.Loadshape_P_Bus1013 npts=8760 interval=1 mult=(file=/home/matheus/Documentos/BtM-PV-estimating/loadshapes/FeederA/Loadshape_P_Bus1013.txt)
New Loadshape.Loadshape_Q_Bus1013 npts=8760 interval=1 mult=(file=/home/matheus/Documentos/BtM-PV-estimating/loadshapes/FeederA/Loadshape_Q_Bus1013.txt)
New Loadshape.Loadshape_P_Bus1014 npts=8760 interval=1 mult=(file=/home/matheus/Documentos/BtM-PV-estimating/loadshapes/FeederA/Loadshape_P_Bus1014.txt)
New Loadshape.Loadshape_Q_Bus1014 npts=8760 interval=1 mult=(file=/home/matheus/Documentos/BtM-PV-estimating/loadshapes/FeederA/Loadshape_Q_Bus1014.txt)
New Loadshape.Loadshape_P_Bus1015 npts=8760 interval=1 mult=(file=/home/matheus/Documentos/BtM-PV-estimating/loadshapes/FeederA/Loadshape_P_Bus1015.txt)
New Loadshape.Loadshape_Q_Bus1015 npts=8760 interval=1 mult=(file=/home/matheus/Documentos/BtM-PV-estimating/loadshapes/FeederA/Loadshape_Q_Bus1015.txt)
New Loadshape.Loadshape_P_Bus1016 npts=8760 interval=1 mult=(file=/home/matheus/Documentos/BtM-PV-estimating/loadshapes/FeederA/Loadshape_P_Bus1016.txt)
New Loadshape.Loadshape_Q_Bus1016 npts=8760 interval=1 mult=(file=/home/matheus/Documentos/BtM-PV-estimating/loadshapes/FeederA/Loadshape_Q_Bus1016.txt)
New Loadshape.Loadshape_P_Bus1017 npts=8760 interval=1 mult=(file=/home/matheus/Documentos/BtM-PV-estimating/loadshapes/FeederA/Loadshape_P_Bus1017.txt)
New Loadshape.Loadshape_Q_Bus1017 npts=8760 interval=1 mult=(file=/home/matheus/Documentos/BtM-PV-estimating/loadshapes/FeederA/Loadshape_Q_Bus1017.txt)
