New Loadshape.Loadshape_Bus3002 npts=8760 interval=1 mult=(file=/home/matheus/Documentos/BtM-PV-estimating/loadshapes/FeederC/Loadshape_Bus3002.txt)
New Loadshape.Loadshape_Bus3004 npts=8760 interval=1 mult=(file=/home/matheus/Documentos/BtM-PV-estimating/loadshapes/FeederC/Loadshape_Bus3004.txt)
New Loadshape.Loadshape_Bus3006 npts=8760 interval=1 mult=(file=/home/matheus/Documentos/BtM-PV-estimating/loadshapes/FeederC/Loadshape_Bus3006.txt)
New Loadshape.Loadshape_Bus3007 npts=8760 interval=1 mult=(file=/home/matheus/Documentos/BtM-PV-estimating/loadshapes/FeederC/Loadshape_Bus3007.txt)
New Loadshape.Loadshape_Bus3009 npts=8760 interval=1 mult=(file=/home/matheus/Documentos/BtM-PV-estimating/loadshapes/FeederC/Loadshape_Bus3009.txt)
New Loadshape.Loadshape_Bus3010 npts=8760 interval=1 mult=(file=/home/matheus/Documentos/BtM-PV-estimating/loadshapes/FeederC/Loadshape_Bus3010.txt)
New Loadshape.Loadshape_Bus3011 npts=8760 interval=1 mult=(file=/home/matheus/Documentos/BtM-PV-estimating/loadshapes/FeederC/Loadshape_Bus3011.txt)
New Loadshape.Loadshape_Bus3012 npts=8760 interval=1 mult=(file=/home/matheus/Documentos/BtM-PV-estimating/loadshapes/FeederC/Loadshape_Bus3012.txt)
New Loadshape.Loadshape_Bus3013 npts=8760 interval=1 mult=(file=/home/matheus/Documentos/BtM-PV-estimating/loadshapes/FeederC/Loadshape_Bus3013.txt)
New Loadshape.Loadshape_Bus3014 npts=8760 interval=1 mult=(file=/home/matheus/Documentos/BtM-PV-estimating/loadshapes/FeederC/Loadshape_Bus3014.txt)
New Loadshape.Loadshape_Bus3016 npts=8760 interval=1 mult=(file=/home/matheus/Documentos/BtM-PV-estimating/loadshapes/FeederC/Loadshape_Bus3016.txt)
New Loadshape.Loadshape_Bus3017 npts=8760 interval=1 mult=(file=/home/matheus/Documentos/BtM-PV-estimating/loadshapes/FeederC/Loadshape_Bus3017.txt)
New Loadshape.Loadshape_Bus3018 npts=8760 interval=1 mult=(file=/home/matheus/Documentos/BtM-PV-estimating/loadshapes/FeederC/Loadshape_Bus3018.txt)
New Loadshape.Loadshape_Bus3019 npts=8760 interval=1 mult=(file=/home/matheus/Documentos/BtM-PV-estimating/loadshapes/FeederC/Loadshape_Bus3019.txt)
New Loadshape.Loadshape_Bus3020 npts=8760 interval=1 mult=(file=/home/matheus/Documentos/BtM-PV-estimating/loadshapes/FeederC/Loadshape_Bus3020.txt)
New Loadshape.Loadshape_Bus3021 npts=8760 interval=1 mult=(file=/home/matheus/Documentos/BtM-PV-estimating/loadshapes/FeederC/Loadshape_Bus3021.txt)
New Loadshape.Loadshape_Bus3023 npts=8760 interval=1 mult=(file=/home/matheus/Documentos/BtM-PV-estimating/loadshapes/FeederC/Loadshape_Bus3023.txt)
New Loadshape.Loadshape_Bus3024 npts=8760 interval=1 mult=(file=/home/matheus/Documentos/BtM-PV-estimating/loadshapes/FeederC/Loadshape_Bus3024.txt)
New Loadshape.Loadshape_Bus3025 npts=8760 interval=1 mult=(file=/home/matheus/Documentos/BtM-PV-estimating/loadshapes/FeederC/Loadshape_Bus3025.txt)
New Loadshape.Loadshape_Bus3026 npts=8760 interval=1 mult=(file=/home/matheus/Documentos/BtM-PV-estimating/loadshapes/FeederC/Loadshape_Bus3026.txt)
New Loadshape.Loadshape_Bus3027 npts=8760 interval=1 mult=(file=/home/matheus/Documentos/BtM-PV-estimating/loadshapes/FeederC/Loadshape_Bus3027.txt)
New Loadshape.Loadshape_Bus3028 npts=8760 interval=1 mult=(file=/home/matheus/Documentos/BtM-PV-estimating/loadshapes/FeederC/Loadshape_Bus3028.txt)
New Loadshape.Loadshape_Bus3029 npts=8760 interval=1 mult=(file=/home/matheus/Documentos/BtM-PV-estimating/loadshapes/FeederC/Loadshape_Bus3029.txt)
New Loadshape.Loadshape_Bus3031 npts=8760 interval=1 mult=(file=/home/matheus/Documentos/BtM-PV-estimating/loadshapes/FeederC/Loadshape_Bus3031.txt)
New Loadshape.Loadshape_Bus3032 npts=8760 interval=1 mult=(file=/home/matheus/Documentos/BtM-PV-estimating/loadshapes/FeederC/Loadshape_Bus3032.txt)
New Loadshape.Loadshape_Bus3033 npts=8760 interval=1 mult=(file=/home/matheus/Documentos/BtM-PV-estimating/loadshapes/FeederC/Loadshape_Bus3033.txt)
New Loadshape.Loadshape_Bus3034 npts=8760 interval=1 mult=(file=/home/matheus/Documentos/BtM-PV-estimating/loadshapes/FeederC/Loadshape_Bus3034.txt)
New Loadshape.Loadshape_Bus3035 npts=8760 interval=1 mult=(file=/home/matheus/Documentos/BtM-PV-estimating/loadshapes/FeederC/Loadshape_Bus3035.txt)
New Loadshape.Loadshape_Bus3036 npts=8760 interval=1 mult=(file=/home/matheus/Documentos/BtM-PV-estimating/loadshapes/FeederC/Loadshape_Bus3036.txt)
New Loadshape.Loadshape_Bus3037 npts=8760 interval=1 mult=(file=/home/matheus/Documentos/BtM-PV-estimating/loadshapes/FeederC/Loadshape_Bus3037.txt)
New Loadshape.Loadshape_Bus3038 npts=8760 interval=1 mult=(file=/home/matheus/Documentos/BtM-PV-estimating/loadshapes/FeederC/Loadshape_Bus3038.txt)
New Loadshape.Loadshape_Bus3039 npts=8760 interval=1 mult=(file=/home/matheus/Documentos/BtM-PV-estimating/loadshapes/FeederC/Loadshape_Bus3039.txt)
New Loadshape.Loadshape_Bus3041 npts=8760 interval=1 mult=(file=/home/matheus/Documentos/BtM-PV-estimating/loadshapes/FeederC/Loadshape_Bus3041.txt)
New Loadshape.Loadshape_Bus3042 npts=8760 interval=1 mult=(file=/home/matheus/Documentos/BtM-PV-estimating/loadshapes/FeederC/Loadshape_Bus3042.txt)
New Loadshape.Loadshape_Bus3043 npts=8760 interval=1 mult=(file=/home/matheus/Documentos/BtM-PV-estimating/loadshapes/FeederC/Loadshape_Bus3043.txt)
New Loadshape.Loadshape_Bus3044 npts=8760 interval=1 mult=(file=/home/matheus/Documentos/BtM-PV-estimating/loadshapes/FeederC/Loadshape_Bus3044.txt)
New Loadshape.Loadshape_Bus3045 npts=8760 interval=1 mult=(file=/home/matheus/Documentos/BtM-PV-estimating/loadshapes/FeederC/Loadshape_Bus3045.txt)
New Loadshape.Loadshape_Bus3047 npts=8760 interval=1 mult=(file=/home/matheus/Documentos/BtM-PV-estimating/loadshapes/FeederC/Loadshape_Bus3047.txt)
New Loadshape.Loadshape_Bus3048 npts=8760 interval=1 mult=(file=/home/matheus/Documentos/BtM-PV-estimating/loadshapes/FeederC/Loadshape_Bus3048.txt)
New Loadshape.Loadshape_Bus3049 npts=8760 interval=1 mult=(file=/home/matheus/Documentos/BtM-PV-estimating/loadshapes/FeederC/Loadshape_Bus3049.txt)
New Loadshape.Loadshape_Bus3050 npts=8760 interval=1 mult=(file=/home/matheus/Documentos/BtM-PV-estimating/loadshapes/FeederC/Loadshape_Bus3050.txt)
New Loadshape.Loadshape_Bus3051 npts=8760 interval=1 mult=(file=/home/matheus/Documentos/BtM-PV-estimating/loadshapes/FeederC/Loadshape_Bus3051.txt)
New Loadshape.Loadshape_Bus3052 npts=8760 interval=1 mult=(file=/home/matheus/Documentos/BtM-PV-estimating/loadshapes/FeederC/Loadshape_Bus3052.txt)
New Loadshape.Loadshape_Bus3054 npts=8760 interval=1 mult=(file=/home/matheus/Documentos/BtM-PV-estimating/loadshapes/FeederC/Loadshape_Bus3054.txt)
New Loadshape.Loadshape_Bus3056 npts=8760 interval=1 mult=(file=/home/matheus/Documentos/BtM-PV-estimating/loadshapes/FeederC/Loadshape_Bus3056.txt)
New Loadshape.Loadshape_Bus3057 npts=8760 interval=1 mult=(file=/home/matheus/Documentos/BtM-PV-estimating/loadshapes/FeederC/Loadshape_Bus3057.txt)
New Loadshape.Loadshape_Bus3058 npts=8760 interval=1 mult=(file=/home/matheus/Documentos/BtM-PV-estimating/loadshapes/FeederC/Loadshape_Bus3058.txt)
New Loadshape.Loadshape_Bus3059 npts=8760 interval=1 mult=(file=/home/matheus/Documentos/BtM-PV-estimating/loadshapes/FeederC/Loadshape_Bus3059.txt)
New Loadshape.Loadshape_Bus3060 npts=8760 interval=1 mult=(file=/home/matheus/Documentos/BtM-PV-estimating/loadshapes/FeederC/Loadshape_Bus3060.txt)
New Loadshape.Loadshape_Bus3061 npts=8760 interval=1 mult=(file=/home/matheus/Documentos/BtM-PV-estimating/loadshapes/FeederC/Loadshape_Bus3061.txt)
New Loadshape.Loadshape_Bus3062 npts=8760 interval=1 mult=(file=/home/matheus/Documentos/BtM-PV-estimating/loadshapes/FeederC/Loadshape_Bus3062.txt)
New Loadshape.Loadshape_Bus3063 npts=8760 interval=1 mult=(file=/home/matheus/Documentos/BtM-PV-estimating/loadshapes/FeederC/Loadshape_Bus3063.txt)
New Loadshape.Loadshape_Bus3064 npts=8760 interval=1 mult=(file=/home/matheus/Documentos/BtM-PV-estimating/loadshapes/FeederC/Loadshape_Bus3064.txt)
New Loadshape.Loadshape_Bus3065 npts=8760 interval=1 mult=(file=/home/matheus/Documentos/BtM-PV-estimating/loadshapes/FeederC/Loadshape_Bus3065.txt)
New Loadshape.Loadshape_Bus3066 npts=8760 interval=1 mult=(file=/home/matheus/Documentos/BtM-PV-estimating/loadshapes/FeederC/Loadshape_Bus3066.txt)
New Loadshape.Loadshape_Bus3067 npts=8760 interval=1 mult=(file=/home/matheus/Documentos/BtM-PV-estimating/loadshapes/FeederC/Loadshape_Bus3067.txt)
New Loadshape.Loadshape_Bus3070 npts=8760 interval=1 mult=(file=/home/matheus/Documentos/BtM-PV-estimating/loadshapes/FeederC/Loadshape_Bus3070.txt)
New Loadshape.Loadshape_Bus3071 npts=8760 interval=1 mult=(file=/home/matheus/Documentos/BtM-PV-estimating/loadshapes/FeederC/Loadshape_Bus3071.txt)
New Loadshape.Loadshape_Bus3072 npts=8760 interval=1 mult=(file=/home/matheus/Documentos/BtM-PV-estimating/loadshapes/FeederC/Loadshape_Bus3072.txt)
New Loadshape.Loadshape_Bus3073 npts=8760 interval=1 mult=(file=/home/matheus/Documentos/BtM-PV-estimating/loadshapes/FeederC/Loadshape_Bus3073.txt)
New Loadshape.Loadshape_Bus3074 npts=8760 interval=1 mult=(file=/home/matheus/Documentos/BtM-PV-estimating/loadshapes/FeederC/Loadshape_Bus3074.txt)
New Loadshape.Loadshape_Bus3077 npts=8760 interval=1 mult=(file=/home/matheus/Documentos/BtM-PV-estimating/loadshapes/FeederC/Loadshape_Bus3077.txt)
New Loadshape.Loadshape_Bus3078 npts=8760 interval=1 mult=(file=/home/matheus/Documentos/BtM-PV-estimating/loadshapes/FeederC/Loadshape_Bus3078.txt)
New Loadshape.Loadshape_Bus3081 npts=8760 interval=1 mult=(file=/home/matheus/Documentos/BtM-PV-estimating/loadshapes/FeederC/Loadshape_Bus3081.txt)
New Loadshape.Loadshape_Bus3083 npts=8760 interval=1 mult=(file=/home/matheus/Documentos/BtM-PV-estimating/loadshapes/FeederC/Loadshape_Bus3083.txt)
New Loadshape.Loadshape_Bus3084 npts=8760 interval=1 mult=(file=/home/matheus/Documentos/BtM-PV-estimating/loadshapes/FeederC/Loadshape_Bus3084.txt)
New Loadshape.Loadshape_Bus3085 npts=8760 interval=1 mult=(file=/home/matheus/Documentos/BtM-PV-estimating/loadshapes/FeederC/Loadshape_Bus3085.txt)
New Loadshape.Loadshape_Bus3086 npts=8760 interval=1 mult=(file=/home/matheus/Documentos/BtM-PV-estimating/loadshapes/FeederC/Loadshape_Bus3086.txt)
New Loadshape.Loadshape_Bus3087 npts=8760 interval=1 mult=(file=/home/matheus/Documentos/BtM-PV-estimating/loadshapes/FeederC/Loadshape_Bus3087.txt)
New Loadshape.Loadshape_Bus3088 npts=8760 interval=1 mult=(file=/home/matheus/Documentos/BtM-PV-estimating/loadshapes/FeederC/Loadshape_Bus3088.txt)
New Loadshape.Loadshape_Bus3089 npts=8760 interval=1 mult=(file=/home/matheus/Documentos/BtM-PV-estimating/loadshapes/FeederC/Loadshape_Bus3089.txt)
New Loadshape.Loadshape_Bus3090 npts=8760 interval=1 mult=(file=/home/matheus/Documentos/BtM-PV-estimating/loadshapes/FeederC/Loadshape_Bus3090.txt)
New Loadshape.Loadshape_Bus3091 npts=8760 interval=1 mult=(file=/home/matheus/Documentos/BtM-PV-estimating/loadshapes/FeederC/Loadshape_Bus3091.txt)
New Loadshape.Loadshape_Bus3093 npts=8760 interval=1 mult=(file=/home/matheus/Documentos/BtM-PV-estimating/loadshapes/FeederC/Loadshape_Bus3093.txt)
New Loadshape.Loadshape_Bus3094 npts=8760 interval=1 mult=(file=/home/matheus/Documentos/BtM-PV-estimating/loadshapes/FeederC/Loadshape_Bus3094.txt)
New Loadshape.Loadshape_Bus3095 npts=8760 interval=1 mult=(file=/home/matheus/Documentos/BtM-PV-estimating/loadshapes/FeederC/Loadshape_Bus3095.txt)
New Loadshape.Loadshape_Bus3096 npts=8760 interval=1 mult=(file=/home/matheus/Documentos/BtM-PV-estimating/loadshapes/FeederC/Loadshape_Bus3096.txt)
New Loadshape.Loadshape_Bus3097 npts=8760 interval=1 mult=(file=/home/matheus/Documentos/BtM-PV-estimating/loadshapes/FeederC/Loadshape_Bus3097.txt)
New Loadshape.Loadshape_Bus3098 npts=8760 interval=1 mult=(file=/home/matheus/Documentos/BtM-PV-estimating/loadshapes/FeederC/Loadshape_Bus3098.txt)
New Loadshape.Loadshape_Bus3099 npts=8760 interval=1 mult=(file=/home/matheus/Documentos/BtM-PV-estimating/loadshapes/FeederC/Loadshape_Bus3099.txt)
New Loadshape.Loadshape_Bus3101 npts=8760 interval=1 mult=(file=/home/matheus/Documentos/BtM-PV-estimating/loadshapes/FeederC/Loadshape_Bus3101.txt)
New Loadshape.Loadshape_Bus3102 npts=8760 interval=1 mult=(file=/home/matheus/Documentos/BtM-PV-estimating/loadshapes/FeederC/Loadshape_Bus3102.txt)
New Loadshape.Loadshape_Bus3103 npts=8760 interval=1 mult=(file=/home/matheus/Documentos/BtM-PV-estimating/loadshapes/FeederC/Loadshape_Bus3103.txt)
New Loadshape.Loadshape_Bus3104 npts=8760 interval=1 mult=(file=/home/matheus/Documentos/BtM-PV-estimating/loadshapes/FeederC/Loadshape_Bus3104.txt)
New Loadshape.Loadshape_Bus3105 npts=8760 interval=1 mult=(file=/home/matheus/Documentos/BtM-PV-estimating/loadshapes/FeederC/Loadshape_Bus3105.txt)
New Loadshape.Loadshape_Bus3106 npts=8760 interval=1 mult=(file=/home/matheus/Documentos/BtM-PV-estimating/loadshapes/FeederC/Loadshape_Bus3106.txt)
New Loadshape.Loadshape_Bus3108 npts=8760 interval=1 mult=(file=/home/matheus/Documentos/BtM-PV-estimating/loadshapes/FeederC/Loadshape_Bus3108.txt)
New Loadshape.Loadshape_Bus3109 npts=8760 interval=1 mult=(file=/home/matheus/Documentos/BtM-PV-estimating/loadshapes/FeederC/Loadshape_Bus3109.txt)
New Loadshape.Loadshape_Bus3110 npts=8760 interval=1 mult=(file=/home/matheus/Documentos/BtM-PV-estimating/loadshapes/FeederC/Loadshape_Bus3110.txt)
New Loadshape.Loadshape_Bus3111 npts=8760 interval=1 mult=(file=/home/matheus/Documentos/BtM-PV-estimating/loadshapes/FeederC/Loadshape_Bus3111.txt)
New Loadshape.Loadshape_Bus3112 npts=8760 interval=1 mult=(file=/home/matheus/Documentos/BtM-PV-estimating/loadshapes/FeederC/Loadshape_Bus3112.txt)
New Loadshape.Loadshape_Bus3114 npts=8760 interval=1 mult=(file=/home/matheus/Documentos/BtM-PV-estimating/loadshapes/FeederC/Loadshape_Bus3114.txt)
New Loadshape.Loadshape_Bus3115 npts=8760 interval=1 mult=(file=/home/matheus/Documentos/BtM-PV-estimating/loadshapes/FeederC/Loadshape_Bus3115.txt)
New Loadshape.Loadshape_Bus3116 npts=8760 interval=1 mult=(file=/home/matheus/Documentos/BtM-PV-estimating/loadshapes/FeederC/Loadshape_Bus3116.txt)
New Loadshape.Loadshape_Bus3117 npts=8760 interval=1 mult=(file=/home/matheus/Documentos/BtM-PV-estimating/loadshapes/FeederC/Loadshape_Bus3117.txt)
New Loadshape.Loadshape_Bus3120 npts=8760 interval=1 mult=(file=/home/matheus/Documentos/BtM-PV-estimating/loadshapes/FeederC/Loadshape_Bus3120.txt)
New Loadshape.Loadshape_Bus3121 npts=8760 interval=1 mult=(file=/home/matheus/Documentos/BtM-PV-estimating/loadshapes/FeederC/Loadshape_Bus3121.txt)
New Loadshape.Loadshape_Bus3122 npts=8760 interval=1 mult=(file=/home/matheus/Documentos/BtM-PV-estimating/loadshapes/FeederC/Loadshape_Bus3122.txt)
New Loadshape.Loadshape_Bus3123 npts=8760 interval=1 mult=(file=/home/matheus/Documentos/BtM-PV-estimating/loadshapes/FeederC/Loadshape_Bus3123.txt)
New Loadshape.Loadshape_Bus3124 npts=8760 interval=1 mult=(file=/home/matheus/Documentos/BtM-PV-estimating/loadshapes/FeederC/Loadshape_Bus3124.txt)
New Loadshape.Loadshape_Bus3125 npts=8760 interval=1 mult=(file=/home/matheus/Documentos/BtM-PV-estimating/loadshapes/FeederC/Loadshape_Bus3125.txt)
New Loadshape.Loadshape_Bus3126 npts=8760 interval=1 mult=(file=/home/matheus/Documentos/BtM-PV-estimating/loadshapes/FeederC/Loadshape_Bus3126.txt)
New Loadshape.Loadshape_Bus3127 npts=8760 interval=1 mult=(file=/home/matheus/Documentos/BtM-PV-estimating/loadshapes/FeederC/Loadshape_Bus3127.txt)
New Loadshape.Loadshape_Bus3128 npts=8760 interval=1 mult=(file=/home/matheus/Documentos/BtM-PV-estimating/loadshapes/FeederC/Loadshape_Bus3128.txt)
New Loadshape.Loadshape_Bus3129 npts=8760 interval=1 mult=(file=/home/matheus/Documentos/BtM-PV-estimating/loadshapes/FeederC/Loadshape_Bus3129.txt)
New Loadshape.Loadshape_Bus3130 npts=8760 interval=1 mult=(file=/home/matheus/Documentos/BtM-PV-estimating/loadshapes/FeederC/Loadshape_Bus3130.txt)
New Loadshape.Loadshape_Bus3131 npts=8760 interval=1 mult=(file=/home/matheus/Documentos/BtM-PV-estimating/loadshapes/FeederC/Loadshape_Bus3131.txt)
New Loadshape.Loadshape_Bus3132 npts=8760 interval=1 mult=(file=/home/matheus/Documentos/BtM-PV-estimating/loadshapes/FeederC/Loadshape_Bus3132.txt)
New Loadshape.Loadshape_Bus3134 npts=8760 interval=1 mult=(file=/home/matheus/Documentos/BtM-PV-estimating/loadshapes/FeederC/Loadshape_Bus3134.txt)
New Loadshape.Loadshape_Bus3135 npts=8760 interval=1 mult=(file=/home/matheus/Documentos/BtM-PV-estimating/loadshapes/FeederC/Loadshape_Bus3135.txt)
New Loadshape.Loadshape_Bus3136 npts=8760 interval=1 mult=(file=/home/matheus/Documentos/BtM-PV-estimating/loadshapes/FeederC/Loadshape_Bus3136.txt)
New Loadshape.Loadshape_Bus3137 npts=8760 interval=1 mult=(file=/home/matheus/Documentos/BtM-PV-estimating/loadshapes/FeederC/Loadshape_Bus3137.txt)
New Loadshape.Loadshape_Bus3138 npts=8760 interval=1 mult=(file=/home/matheus/Documentos/BtM-PV-estimating/loadshapes/FeederC/Loadshape_Bus3138.txt)
New Loadshape.Loadshape_Bus3141 npts=8760 interval=1 mult=(file=/home/matheus/Documentos/BtM-PV-estimating/loadshapes/FeederC/Loadshape_Bus3141.txt)
New Loadshape.Loadshape_Bus3142 npts=8760 interval=1 mult=(file=/home/matheus/Documentos/BtM-PV-estimating/loadshapes/FeederC/Loadshape_Bus3142.txt)
New Loadshape.Loadshape_Bus3143 npts=8760 interval=1 mult=(file=/home/matheus/Documentos/BtM-PV-estimating/loadshapes/FeederC/Loadshape_Bus3143.txt)
New Loadshape.Loadshape_Bus3144 npts=8760 interval=1 mult=(file=/home/matheus/Documentos/BtM-PV-estimating/loadshapes/FeederC/Loadshape_Bus3144.txt)
New Loadshape.Loadshape_Bus3145 npts=8760 interval=1 mult=(file=/home/matheus/Documentos/BtM-PV-estimating/loadshapes/FeederC/Loadshape_Bus3145.txt)
New Loadshape.Loadshape_Bus3146 npts=8760 interval=1 mult=(file=/home/matheus/Documentos/BtM-PV-estimating/loadshapes/FeederC/Loadshape_Bus3146.txt)
New Loadshape.Loadshape_Bus3147 npts=8760 interval=1 mult=(file=/home/matheus/Documentos/BtM-PV-estimating/loadshapes/FeederC/Loadshape_Bus3147.txt)
New Loadshape.Loadshape_Bus3148 npts=8760 interval=1 mult=(file=/home/matheus/Documentos/BtM-PV-estimating/loadshapes/FeederC/Loadshape_Bus3148.txt)
New Loadshape.Loadshape_Bus3149 npts=8760 interval=1 mult=(file=/home/matheus/Documentos/BtM-PV-estimating/loadshapes/FeederC/Loadshape_Bus3149.txt)
New Loadshape.Loadshape_Bus3150 npts=8760 interval=1 mult=(file=/home/matheus/Documentos/BtM-PV-estimating/loadshapes/FeederC/Loadshape_Bus3150.txt)
New Loadshape.Loadshape_Bus3151 npts=8760 interval=1 mult=(file=/home/matheus/Documentos/BtM-PV-estimating/loadshapes/FeederC/Loadshape_Bus3151.txt)
New Loadshape.Loadshape_Bus3152 npts=8760 interval=1 mult=(file=/home/matheus/Documentos/BtM-PV-estimating/loadshapes/FeederC/Loadshape_Bus3152.txt)
New Loadshape.Loadshape_Bus3153 npts=8760 interval=1 mult=(file=/home/matheus/Documentos/BtM-PV-estimating/loadshapes/FeederC/Loadshape_Bus3153.txt)
New Loadshape.Loadshape_Bus3154 npts=8760 interval=1 mult=(file=/home/matheus/Documentos/BtM-PV-estimating/loadshapes/FeederC/Loadshape_Bus3154.txt)
New Loadshape.Loadshape_Bus3155 npts=8760 interval=1 mult=(file=/home/matheus/Documentos/BtM-PV-estimating/loadshapes/FeederC/Loadshape_Bus3155.txt)
New Loadshape.Loadshape_Bus3157 npts=8760 interval=1 mult=(file=/home/matheus/Documentos/BtM-PV-estimating/loadshapes/FeederC/Loadshape_Bus3157.txt)
New Loadshape.Loadshape_Bus3158 npts=8760 interval=1 mult=(file=/home/matheus/Documentos/BtM-PV-estimating/loadshapes/FeederC/Loadshape_Bus3158.txt)
New Loadshape.Loadshape_Bus3159 npts=8760 interval=1 mult=(file=/home/matheus/Documentos/BtM-PV-estimating/loadshapes/FeederC/Loadshape_Bus3159.txt)
New Loadshape.Loadshape_Bus3160 npts=8760 interval=1 mult=(file=/home/matheus/Documentos/BtM-PV-estimating/loadshapes/FeederC/Loadshape_Bus3160.txt)
New Loadshape.Loadshape_Bus3161 npts=8760 interval=1 mult=(file=/home/matheus/Documentos/BtM-PV-estimating/loadshapes/FeederC/Loadshape_Bus3161.txt)
New Loadshape.Loadshape_Bus3162 npts=8760 interval=1 mult=(file=/home/matheus/Documentos/BtM-PV-estimating/loadshapes/FeederC/Loadshape_Bus3162.txt)
